Version 4
SHEET 1 936 680
WIRE -208 16 -336 16
WIRE 16 16 -208 16
WIRE 16 112 16 16
WIRE -336 128 -336 16
WIRE -208 160 -208 96
WIRE -208 160 -224 160
WIRE -48 160 -208 160
WIRE -208 224 -208 160
WIRE 192 288 16 288
WIRE 16 304 16 288
WIRE -336 368 -336 208
WIRE -208 368 -208 304
WIRE -208 368 -336 368
WIRE 16 368 -208 368
WIRE -208 400 -208 368
FLAG -208 400 0
FLAG -224 160 Vb
IOPIN -224 160 In
FLAG 192 288 VLED
IOPIN 192 288 In
SYMBOL battery -336 112 R0
WINDOW 123 0 0 Left 2
WINDOW 3 24 38 Left 2
SYMATTR InstName V1
SYMATTR Value 9V
SYMBOL res -224 0 R0
WINDOW 3 39 87 Left 2
SYMATTR InstName R1
SYMATTR Value 12.1K
SYMBOL res -224 208 R0
SYMATTR InstName R2
SYMATTR Value {Rp}
SYMBOL res 0 192 R0
WINDOW 0 33 45 Left 2
SYMATTR InstName R3
SYMATTR Value 162
SYMBOL npn -48 112 R0
SYMATTR InstName Q1
SYMATTR Value 2N2222
SYMBOL LED 0 304 R0
WINDOW 0 39 -11 Top 2
SYMATTR InstName D1
SYMATTR Value WP710A10QBC-2
TEXT -96 432 Left 2 !.lib LTSpice/WP710A10QBC.SP3
TEXT -392 432 Left 2 !.tran 0 1ms 1us startup
TEXT -384 464 Left 2 !.step param Rp 5K 20K 5K
